Version 4
SHEET 1 1472 680
WIRE 160 -64 -96 -64
WIRE 592 -64 336 -64
WIRE 160 -32 -16 -32
WIRE 496 -32 336 -32
WIRE 496 0 336 0
WIRE 160 16 64 16
WIRE 496 32 336 32
WIRE -96 160 -96 -64
WIRE -16 160 -16 -32
WIRE 64 160 64 16
WIRE -96 288 -96 240
WIRE -16 288 -16 240
WIRE 64 288 64 240
WIRE 592 288 592 -64
WIRE -160 432 -240 432
WIRE 0 432 -80 432
WIRE 80 432 0 432
WIRE 384 432 320 432
WIRE 816 432 752 432
WIRE -240 480 -240 432
WIRE 0 496 0 432
WIRE 320 496 320 432
WIRE 752 496 752 432
WIRE -240 624 -240 560
WIRE 0 624 0 560
WIRE 320 624 320 576
WIRE 752 624 752 576
FLAG -96 288 0
FLAG -96 -64 PWR
FLAG -240 624 0
FLAG 0 624 0
FLAG 80 432 El_Power
FLAG 384 432 Shaft_Power
FLAG 320 624 0
FLAG 816 432 Eff
FLAG 752 624 0
FLAG -16 288 0
FLAG 64 288 0
FLAG 496 -32 RPM
FLAG 496 0 Torque
FLAG 496 32 Wmech
FLAG 592 288 0
FLAG 64 16 PWL
SYMBOL voltage -96 144 R0
WINDOW 0 -42 6 Left 2
WINDOW 3 -44 93 Left 2
WINDOW 123 0 0 Left 2
WINDOW 39 0 0 Left 2
SYMATTR InstName V6
SYMATTR Value 24
SYMBOL bv -240 464 R0
SYMATTR InstName B1
SYMATTR Value V=-v(PWR)*i(V6)
SYMBOL res -64 416 R90
WINDOW 0 0 56 VBottom 2
WINDOW 3 32 56 VTop 2
SYMATTR InstName R1
SYMATTR Value 5k
SYMBOL cap -16 496 R0
SYMATTR InstName C1
SYMATTR Value 0.047µF
SYMBOL bv 320 480 R0
SYMATTR InstName B2
SYMATTR Value V = V(Torque) * V(Wmech)
SYMBOL bv 752 480 R0
SYMATTR InstName B3
SYMATTR Value V = V(Shaft_Power) / V(El_Power)
SYMBOL voltage -16 144 R0
WINDOW 123 0 0 Left 2
WINDOW 39 0 0 Left 2
SYMATTR InstName V2
SYMATTR Value 0
SYMBOL voltage 64 144 R0
WINDOW 123 0 0 Left 2
WINDOW 39 0 0 Left 2
SYMATTR InstName V3
SYMATTR Value PWL(0 0 0.249999 0 0.25 0.2612)
SYMBOL DC_Motor 240 -16 R0
WINDOW 0 9 -107 Bottom 2
SYMATTR InstName X1
TEXT -112 336 Left 2 !.tran 0 0.5 0 uic
