Version 4
SHEET 1 3848 1060
WIRE 976 48 640 48
WIRE 1024 48 976 48
WIRE 1264 48 1200 48
WIRE 1488 48 1264 48
WIRE 1024 80 720 80
WIRE 1360 80 1200 80
WIRE 1360 112 1200 112
WIRE 1024 128 800 128
WIRE 1840 128 1760 128
WIRE 1392 144 1200 144
WIRE 1632 144 1392 144
WIRE 1840 160 1760 160
WIRE 640 272 640 48
WIRE 720 272 720 80
WIRE 800 272 800 128
WIRE 1488 384 1488 48
WIRE 640 400 640 352
WIRE 720 400 720 352
WIRE 800 400 800 352
FLAG 720 400 0
FLAG 800 400 0
FLAG 1360 80 rpm
FLAG 1360 112 Torque
FLAG 1392 144 Wmech
FLAG 976 48 A
FLAG 1264 48 B
FLAG 640 400 0
FLAG 1840 128 ref
FLAG 1840 160 M-
FLAG 1488 384 0
SYMBOL voltage 720 256 R0
WINDOW 123 0 0 Left 2
WINDOW 39 0 0 Left 2
SYMATTR InstName V1
SYMATTR Value 0
SYMBOL voltage 800 256 R0
WINDOW 123 0 0 Left 2
WINDOW 39 0 0 Left 2
SYMATTR InstName V2
SYMATTR Value PWL(0 0 0.09999 0 0.1 0.2612)
SYMBOL DC_Motor 1104 96 R0
WINDOW 0 7 -107 Bottom 2
SYMATTR InstName X1
SYMBOL Dynamo 1696 144 R0
SYMATTR InstName X2
SYMBOL voltage 640 256 R0
SYMATTR InstName V3
SYMATTR Value 24
TEXT 624 456 Left 2 !.tran 0 0.2 0 1u uic
