Version 4
SHEET 1 1844 836
WIRE -208 -240 -368 -240
WIRE -64 -240 -128 -240
WIRE 96 -240 48 -240
WIRE 304 -240 240 -240
WIRE -64 -208 -64 -240
WIRE 208 -176 208 -208
WIRE 208 -176 128 -176
WIRE 208 -160 208 -176
WIRE 448 -144 448 -224
WIRE 544 -144 448 -144
WIRE 576 -144 544 -144
WIRE 768 -144 720 -144
WIRE 944 -144 912 -144
WIRE 1152 -144 1088 -144
WIRE 1360 -144 1152 -144
WIRE 544 -112 544 -144
WIRE -208 -80 -384 -80
WIRE -64 -80 -64 -128
WIRE -64 -80 -128 -80
WIRE 880 -80 880 -112
WIRE 880 -80 800 -80
WIRE 880 -64 880 -80
WIRE 1152 -32 1152 -144
WIRE 1200 -32 1152 -32
WIRE 1392 -32 1344 -32
WIRE -192 0 -192 -32
WIRE 544 0 544 -32
WIRE 656 0 656 -80
WIRE 656 0 544 0
WIRE -240 32 -384 32
WIRE -144 32 -144 -32
WIRE -144 32 -240 32
WIRE 48 32 48 -240
WIRE 48 32 -144 32
WIRE 304 32 304 -240
WIRE 1024 32 1024 -80
WIRE 1312 32 1312 0
WIRE 1312 32 1232 32
WIRE 1312 48 1312 32
WIRE -112 96 -176 96
WIRE -32 96 -112 96
WIRE 224 96 112 96
WIRE 448 96 448 -144
WIRE 448 96 368 96
WIRE -176 144 -176 96
WIRE -176 272 -176 224
WIRE -240 336 -240 32
WIRE -144 336 -240 336
WIRE 48 336 48 160
WIRE 48 336 16 336
FLAG -368 -240 M+
IOPIN -368 -240 Out
FLAG -384 -80 M-
IOPIN -384 -80 Out
FLAG -176 272 0
FLAG 448 -224 Torque
FLAG -384 32 Wmech
FLAG 1360 -144 Wmech
FLAG 1392 -32 RPM
FLAG 880 -64 0
FLAG 208 -160 0
FLAG 1312 48 0
FLAG -192 0 0
FLAG -112 96 Tem
FLAG 1024 32 i.c.
IOPIN 1024 32 In
SYMBOL res -80 -224 R0
SYMATTR InstName R2
SYMATTR Value {Rt}
SYMBOL ind -224 -224 R270
WINDOW 0 32 56 VTop 2
WINDOW 3 5 56 VBottom 2
SYMATTR InstName L1
SYMATTR Value {L}
SYMBOL bv -176 128 R0
WINDOW 3 44 57 Left 2
SYMATTR Value V=I(L1)*Kt
SYMATTR InstName B2
SYMBOL e -112 -80 M270
SYMATTR InstName E1
SYMATTR Value {Kemf}
SYMBOL Subtractor 48 96 R0
SYMATTR InstName X1
SYMBOL Subtractor 304 96 M180
SYMATTR InstName X2
SYMBOL Subtractor 656 -144 R0
SYMATTR InstName X3
SYMBOL Integrator 1024 -144 R0
SYMATTR InstName X4
SYMBOL Clamp1 -64 336 R0
WINDOW 39 -93 83 Left 2
SYMATTR SpiceLine max={Kf}, min={-Kf}
SYMATTR InstName X5
SYMBOL Gain 144 -272 R0
WINDOW 3 -15 32 Left 2
SYMATTR Value {Kd}
SYMATTR InstName E2
SYMBOL Gain 816 -176 R0
WINDOW 3 -82 -41 Left 2
SYMATTR Value {1/(Jmotor + Jload)}
SYMATTR InstName E3
SYMBOL Gain 1248 -64 R0
WINDOW 3 -28 32 Left 2
SYMATTR Value {30 / pi}
SYMATTR InstName E4
SYMBOL res 528 -128 R0
SYMATTR InstName R3
SYMATTR Value 1K
TEXT 1232 -312 Left 2 !.tran 0 0.5 0 uic
TEXT 1232 -352 Left 2 ;DC MOTOR MODEL
TEXT -296 -336 Left 2 ;Motor Model (Pittman DC Servo Motor\nModel 14206 with 24V Winding)
TEXT 56 296 Left 2 ;Friction\nMotor Bearings and Brushes
TEXT 328 -200 VRight 2 ;Damping Losses
TEXT 1232 440 Left 2 !.param Jload = 100E-6
TEXT 512 -344 Left 2 ;LOAD
TEXT 1312 -112 Left 2 ;Radians/sec
TEXT 512 384 Left 2 ;To put motor on a dyno, cut trace to "lock rotor"\nand then use V4 to specify dyno speed (radians/sec).
TEXT 1232 216 Left 2 !.param Kt = 0.071
TEXT 1232 408 Left 2 !.param Jmotor = 37E-6
TEXT 1232 248 Left 2 !.param Kemf = 0.071
TEXT 1504 216 Left 2 ;Newton-Meters/Amp
TEXT 1504 248 Left 2 ;Volts/(radian/sec)
TEXT 1232 280 Left 2 !.param Kf = 0.014
TEXT 1504 280 Left 2 ;Newton-Meters
TEXT 1232 312 Left 2 !.param Kd = 13E-6
TEXT 1504 312 Left 2 ;Newton-Meters/(radian/sec)
TEXT 1232 344 Left 2 !.param Rt = 0.84
TEXT 1232 376 Left 2 !.param L = 1.36E-3
TEXT 1504 408 Left 2 ;Kilograms-Meter^2
TEXT 1504 376 Left 2 ;Henries
TEXT 1504 344 Left 2 ;Ohms
TEXT 1504 440 Left 2 ;Kilograms-Meter^2
TEXT 1232 -288 Left 2 !.options method = gear
TEXT -312 496 Left 2 ;D A V E    W I L S O N\nK A P P A   E L E C T R O N I C S   L L C\ndave@kappaiq.com\nwww.kappaiq.com
RECTANGLE Normal 400 448 -312 -368
RECTANGLE Normal 1112 448 504 -368
