Version 4
SHEET 1 3848 2500
WIRE -3920 -1920 -3920 -1936
WIRE -3488 -1920 -3488 -1936
WIRE -3712 -1856 -3792 -1856
WIRE -3616 -1856 -3712 -1856
WIRE -3152 -1856 -3360 -1856
WIRE -3920 -1776 -3920 -1792
WIRE -3152 -1760 -3152 -1856
WIRE -3040 -1760 -3152 -1760
WIRE -2864 -1744 -2976 -1744
WIRE -3040 -1728 -3152 -1728
WIRE -3488 -1696 -3488 -1712
WIRE -3008 -1696 -3008 -1712
WIRE -3616 -1648 -3664 -1648
WIRE -3152 -1632 -3152 -1728
WIRE -3152 -1632 -3360 -1632
WIRE -3616 -1616 -3664 -1616
WIRE -3456 -1456 -3696 -1456
WIRE -2960 -1456 -3184 -1456
WIRE -3456 -1424 -3456 -1456
WIRE -2960 -1424 -2960 -1456
WIRE -3696 -1360 -3696 -1456
WIRE -3184 -1360 -3184 -1456
WIRE -4016 -1344 -4016 -1392
WIRE -3840 -1328 -3840 -1344
WIRE -3840 -1328 -3904 -1328
WIRE -3456 -1328 -3456 -1344
WIRE -3344 -1328 -3456 -1328
WIRE -2960 -1328 -2960 -1344
WIRE -2848 -1328 -2960 -1328
WIRE -3904 -1312 -3904 -1328
WIRE -3840 -1296 -3840 -1328
WIRE -3456 -1296 -3456 -1328
WIRE -2960 -1296 -2960 -1328
WIRE -4016 -1216 -4016 -1264
WIRE -3696 -1184 -3696 -1280
WIRE -3456 -1184 -3456 -1216
WIRE -3184 -1184 -3184 -1280
WIRE -2960 -1184 -2960 -1216
FLAG -3456 -1184 0
FLAG -3696 -1184 0
FLAG -3904 -1312 0
FLAG -3840 -1216 Vee
FLAG -3840 -1424 Vcc
FLAG -4016 -1216 0
FLAG -4016 -1392 Vcc30
FLAG -2864 -1744 pwm
FLAG -3008 -1696 0
FLAG -3008 -1776 Vcc30
FLAG -3488 -1936 Vcc
FLAG -3920 -1936 Vcc
FLAG -3920 -1776 Vee
FLAG -3664 -1648 signal
FLAG -3664 -1616 DAC
FLAG -3488 -1712 Vcc
FLAG -3712 -1856 square
FLAG -3152 -1856 triang
FLAG -3152 -1632 pi-ctrl
FLAG -3344 -1328 signal
FLAG -3184 -1184 0
FLAG -2960 -1184 0
FLAG -2848 -1328 DAC
FLAG -3696 -1456 sine
FLAG -3184 -1456 dc
SYMBOL res -3472 -1312 R0
SYMATTR InstName R19
SYMATTR Value 10k
SYMBOL res -3472 -1440 R0
SYMATTR InstName R20
SYMATTR Value 100k
SYMBOL voltage -3840 -1440 R0
WINDOW 123 0 0 Left 0
WINDOW 39 0 0 Left 0
SYMATTR InstName V6
SYMATTR Value 5
SYMBOL voltage -3840 -1312 R0
WINDOW 123 0 0 Left 0
WINDOW 39 0 0 Left 0
SYMATTR InstName V7
SYMATTR Value 5
SYMBOL voltage -4016 -1360 R0
SYMATTR InstName V10
SYMATTR Value 30
SYMBOL Comparators\\LT1716 -3008 -1744 R0
SYMATTR InstName U1
SYMBOL triangular-wave_generator -3472 -1856 R0
WINDOW 0 -126 -48 Bottom 2
SYMATTR InstName X3
SYMBOL square-wave_generator -3920 -1856 R0
WINDOW 0 -109 -47 Bottom 2
SYMATTR InstName X4
SYMBOL pi-ctrl -3440 -1616 R0
WINDOW 0 -158 -64 Bottom 2
SYMATTR InstName X5
SYMBOL voltage -3184 -1376 R0
WINDOW 123 0 0 Left 0
WINDOW 39 0 0 Left 0
SYMATTR InstName V8
SYMATTR Value 15
SYMBOL res -2976 -1312 R0
SYMATTR InstName R2
SYMATTR Value 10k
SYMBOL res -2976 -1440 R0
SYMATTR InstName R3
SYMATTR Value 100k
SYMBOL voltage -3696 -1376 R0
WINDOW 123 0 0 Left 0
WINDOW 39 0 0 Left 0
SYMATTR InstName V1
SYMATTR Value SINE(15 0.5 150)
TEXT -4048 -1112 Left 2 !.tran 0 55m 45m 1u uic
TEXT -3160 -1256 Left 2 ;target voltage
